<?xml version='1.0' encoding='utf-8'?>
<routes>
  <vType id="car" accel="2.6" decel="4.5" sigma="0.5" length="5.0" maxSpeed="13.9" />
  <route id="N_straight" edges="N_in S_out" />
  <route id="S_straight" edges="S_in N_out" />
  <route id="E_straight" edges="E_in W_out" />
  <route id="W_straight" edges="W_in E_out" />
  <vehicle id="N_0_0" type="car" route="N_straight" depart="3.00" departLane="best" departSpeed="max" />
  <vehicle id="W_0_0" type="car" route="W_straight" depart="3.75" departLane="best" departSpeed="max" />
  <vehicle id="N_0_1" type="car" route="N_straight" depart="9.00" departLane="best" departSpeed="max" />
  <vehicle id="W_0_1" type="car" route="W_straight" depart="11.25" departLane="best" departSpeed="max" />
  <vehicle id="N_0_2" type="car" route="N_straight" depart="15.00" departLane="best" departSpeed="max" />
  <vehicle id="S_0_0" type="car" route="S_straight" depart="15.00" departLane="best" departSpeed="max" />
  <vehicle id="E_0_0" type="car" route="E_straight" depart="15.00" departLane="best" departSpeed="max" />
  <vehicle id="W_0_2" type="car" route="W_straight" depart="18.75" departLane="best" departSpeed="max" />
  <vehicle id="N_0_3" type="car" route="N_straight" depart="21.00" departLane="best" departSpeed="max" />
  <vehicle id="W_0_3" type="car" route="W_straight" depart="26.25" departLane="best" departSpeed="max" />
  <vehicle id="N_0_4" type="car" route="N_straight" depart="27.00" departLane="best" departSpeed="max" />
  <vehicle id="N_1_0" type="car" route="N_straight" depart="32.50" departLane="best" departSpeed="max" />
  <vehicle id="W_1_0" type="car" route="W_straight" depart="33.75" departLane="best" departSpeed="max" />
  <vehicle id="N_1_1" type="car" route="N_straight" depart="37.50" departLane="best" departSpeed="max" />
  <vehicle id="E_1_0" type="car" route="E_straight" depart="37.50" departLane="best" departSpeed="max" />
  <vehicle id="W_1_1" type="car" route="W_straight" depart="41.25" departLane="best" departSpeed="max" />
  <vehicle id="N_1_2" type="car" route="N_straight" depart="42.50" departLane="best" departSpeed="max" />
  <vehicle id="S_1_0" type="car" route="S_straight" depart="45.00" departLane="best" departSpeed="max" />
  <vehicle id="N_1_3" type="car" route="N_straight" depart="47.50" departLane="best" departSpeed="max" />
  <vehicle id="W_1_2" type="car" route="W_straight" depart="48.75" departLane="best" departSpeed="max" />
  <vehicle id="N_1_4" type="car" route="N_straight" depart="52.50" departLane="best" departSpeed="max" />
  <vehicle id="E_1_1" type="car" route="E_straight" depart="52.50" departLane="best" departSpeed="max" />
  <vehicle id="W_1_3" type="car" route="W_straight" depart="56.25" departLane="best" departSpeed="max" />
  <vehicle id="N_1_5" type="car" route="N_straight" depart="57.50" departLane="best" departSpeed="max" />
  <vehicle id="N_2_0" type="car" route="N_straight" depart="62.14" departLane="best" departSpeed="max" />
  <vehicle id="W_2_0" type="car" route="W_straight" depart="63.75" departLane="best" departSpeed="max" />
  <vehicle id="N_2_1" type="car" route="N_straight" depart="66.43" departLane="best" departSpeed="max" />
  <vehicle id="E_2_0" type="car" route="E_straight" depart="67.50" departLane="best" departSpeed="max" />
  <vehicle id="N_2_2" type="car" route="N_straight" depart="70.71" departLane="best" departSpeed="max" />
  <vehicle id="W_2_1" type="car" route="W_straight" depart="71.25" departLane="best" departSpeed="max" />
  <vehicle id="N_2_3" type="car" route="N_straight" depart="75.00" departLane="best" departSpeed="max" />
  <vehicle id="W_2_2" type="car" route="W_straight" depart="78.75" departLane="best" departSpeed="max" />
  <vehicle id="N_2_4" type="car" route="N_straight" depart="79.29" departLane="best" departSpeed="max" />
  <vehicle id="E_2_1" type="car" route="E_straight" depart="82.50" departLane="best" departSpeed="max" />
  <vehicle id="N_2_5" type="car" route="N_straight" depart="83.57" departLane="best" departSpeed="max" />
  <vehicle id="W_2_3" type="car" route="W_straight" depart="86.25" departLane="best" departSpeed="max" />
  <vehicle id="N_2_6" type="car" route="N_straight" depart="87.86" departLane="best" departSpeed="max" />
  <vehicle id="N_3_0" type="car" route="N_straight" depart="93.00" departLane="best" departSpeed="max" />
  <vehicle id="W_3_0" type="car" route="W_straight" depart="93.75" departLane="best" departSpeed="max" />
  <vehicle id="E_3_0" type="car" route="E_straight" depart="97.50" departLane="best" departSpeed="max" />
  <vehicle id="N_3_1" type="car" route="N_straight" depart="99.00" departLane="best" departSpeed="max" />
  <vehicle id="W_3_1" type="car" route="W_straight" depart="101.25" departLane="best" departSpeed="max" />
  <vehicle id="N_3_2" type="car" route="N_straight" depart="105.00" departLane="best" departSpeed="max" />
  <vehicle id="S_3_0" type="car" route="S_straight" depart="105.00" departLane="best" departSpeed="max" />
  <vehicle id="W_3_2" type="car" route="W_straight" depart="108.75" departLane="best" departSpeed="max" />
  <vehicle id="N_3_3" type="car" route="N_straight" depart="111.00" departLane="best" departSpeed="max" />
  <vehicle id="E_3_1" type="car" route="E_straight" depart="112.50" departLane="best" departSpeed="max" />
  <vehicle id="W_3_3" type="car" route="W_straight" depart="116.25" departLane="best" departSpeed="max" />
  <vehicle id="N_3_4" type="car" route="N_straight" depart="117.00" departLane="best" departSpeed="max" />
  <vehicle id="N_4_0" type="car" route="N_straight" depart="123.00" departLane="best" departSpeed="max" />
  <vehicle id="W_4_0" type="car" route="W_straight" depart="123.75" departLane="best" departSpeed="max" />
  <vehicle id="E_4_0" type="car" route="E_straight" depart="127.50" departLane="best" departSpeed="max" />
  <vehicle id="N_4_1" type="car" route="N_straight" depart="129.00" departLane="best" departSpeed="max" />
  <vehicle id="W_4_1" type="car" route="W_straight" depart="131.25" departLane="best" departSpeed="max" />
  <vehicle id="N_4_2" type="car" route="N_straight" depart="135.00" departLane="best" departSpeed="max" />
  <vehicle id="S_4_0" type="car" route="S_straight" depart="135.00" departLane="best" departSpeed="max" />
  <vehicle id="W_4_2" type="car" route="W_straight" depart="138.75" departLane="best" departSpeed="max" />
  <vehicle id="N_4_3" type="car" route="N_straight" depart="141.00" departLane="best" departSpeed="max" />
  <vehicle id="E_4_1" type="car" route="E_straight" depart="142.50" departLane="best" departSpeed="max" />
  <vehicle id="W_4_3" type="car" route="W_straight" depart="146.25" departLane="best" departSpeed="max" />
  <vehicle id="N_4_4" type="car" route="N_straight" depart="147.00" departLane="best" departSpeed="max" />
  <vehicle id="N_5_0" type="car" route="N_straight" depart="152.14" departLane="best" departSpeed="max" />
  <vehicle id="W_5_0" type="car" route="W_straight" depart="153.75" departLane="best" departSpeed="max" />
  <vehicle id="N_5_1" type="car" route="N_straight" depart="156.43" departLane="best" departSpeed="max" />
  <vehicle id="E_5_0" type="car" route="E_straight" depart="157.50" departLane="best" departSpeed="max" />
  <vehicle id="N_5_2" type="car" route="N_straight" depart="160.71" departLane="best" departSpeed="max" />
  <vehicle id="W_5_1" type="car" route="W_straight" depart="161.25" departLane="best" departSpeed="max" />
  <vehicle id="N_5_3" type="car" route="N_straight" depart="165.00" departLane="best" departSpeed="max" />
  <vehicle id="S_5_0" type="car" route="S_straight" depart="165.00" departLane="best" departSpeed="max" />
  <vehicle id="W_5_2" type="car" route="W_straight" depart="168.75" departLane="best" departSpeed="max" />
  <vehicle id="N_5_4" type="car" route="N_straight" depart="169.29" departLane="best" departSpeed="max" />
  <vehicle id="E_5_1" type="car" route="E_straight" depart="172.50" departLane="best" departSpeed="max" />
  <vehicle id="N_5_5" type="car" route="N_straight" depart="173.57" departLane="best" departSpeed="max" />
  <vehicle id="W_5_3" type="car" route="W_straight" depart="176.25" departLane="best" departSpeed="max" />
  <vehicle id="N_5_6" type="car" route="N_straight" depart="177.86" departLane="best" departSpeed="max" />
  <vehicle id="N_6_0" type="car" route="N_straight" depart="182.14" departLane="best" departSpeed="max" />
  <vehicle id="W_6_0" type="car" route="W_straight" depart="183.75" departLane="best" departSpeed="max" />
  <vehicle id="N_6_1" type="car" route="N_straight" depart="186.43" departLane="best" departSpeed="max" />
  <vehicle id="N_6_2" type="car" route="N_straight" depart="190.71" departLane="best" departSpeed="max" />
  <vehicle id="W_6_1" type="car" route="W_straight" depart="191.25" departLane="best" departSpeed="max" />
  <vehicle id="N_6_3" type="car" route="N_straight" depart="195.00" departLane="best" departSpeed="max" />
  <vehicle id="S_6_0" type="car" route="S_straight" depart="195.00" departLane="best" departSpeed="max" />
  <vehicle id="E_6_0" type="car" route="E_straight" depart="195.00" departLane="best" departSpeed="max" />
  <vehicle id="W_6_2" type="car" route="W_straight" depart="198.75" departLane="best" departSpeed="max" />
  <vehicle id="N_6_4" type="car" route="N_straight" depart="199.29" departLane="best" departSpeed="max" />
  <vehicle id="N_6_5" type="car" route="N_straight" depart="203.57" departLane="best" departSpeed="max" />
  <vehicle id="W_6_3" type="car" route="W_straight" depart="206.25" departLane="best" departSpeed="max" />
  <vehicle id="N_6_6" type="car" route="N_straight" depart="207.86" departLane="best" departSpeed="max" />
  <vehicle id="N_7_0" type="car" route="N_straight" depart="212.14" departLane="best" departSpeed="max" />
  <vehicle id="W_7_0" type="car" route="W_straight" depart="213.75" departLane="best" departSpeed="max" />
  <vehicle id="N_7_1" type="car" route="N_straight" depart="216.43" departLane="best" departSpeed="max" />
  <vehicle id="N_7_2" type="car" route="N_straight" depart="220.71" departLane="best" departSpeed="max" />
  <vehicle id="W_7_1" type="car" route="W_straight" depart="221.25" departLane="best" departSpeed="max" />
  <vehicle id="N_7_3" type="car" route="N_straight" depart="225.00" departLane="best" departSpeed="max" />
  <vehicle id="S_7_0" type="car" route="S_straight" depart="225.00" departLane="best" departSpeed="max" />
  <vehicle id="E_7_0" type="car" route="E_straight" depart="225.00" departLane="best" departSpeed="max" />
  <vehicle id="W_7_2" type="car" route="W_straight" depart="228.75" departLane="best" departSpeed="max" />
  <vehicle id="N_7_4" type="car" route="N_straight" depart="229.29" departLane="best" departSpeed="max" />
  <vehicle id="N_7_5" type="car" route="N_straight" depart="233.57" departLane="best" departSpeed="max" />
  <vehicle id="W_7_3" type="car" route="W_straight" depart="236.25" departLane="best" departSpeed="max" />
  <vehicle id="N_7_6" type="car" route="N_straight" depart="237.86" departLane="best" departSpeed="max" />
  <vehicle id="N_8_0" type="car" route="N_straight" depart="242.50" departLane="best" departSpeed="max" />
  <vehicle id="W_8_0" type="car" route="W_straight" depart="243.75" departLane="best" departSpeed="max" />
  <vehicle id="N_8_1" type="car" route="N_straight" depart="247.50" departLane="best" departSpeed="max" />
  <vehicle id="E_8_0" type="car" route="E_straight" depart="247.50" departLane="best" departSpeed="max" />
  <vehicle id="W_8_1" type="car" route="W_straight" depart="251.25" departLane="best" departSpeed="max" />
  <vehicle id="N_8_2" type="car" route="N_straight" depart="252.50" departLane="best" departSpeed="max" />
  <vehicle id="S_8_0" type="car" route="S_straight" depart="255.00" departLane="best" departSpeed="max" />
  <vehicle id="N_8_3" type="car" route="N_straight" depart="257.50" departLane="best" departSpeed="max" />
  <vehicle id="W_8_2" type="car" route="W_straight" depart="258.75" departLane="best" departSpeed="max" />
  <vehicle id="N_8_4" type="car" route="N_straight" depart="262.50" departLane="best" departSpeed="max" />
  <vehicle id="E_8_1" type="car" route="E_straight" depart="262.50" departLane="best" departSpeed="max" />
  <vehicle id="W_8_3" type="car" route="W_straight" depart="266.25" departLane="best" departSpeed="max" />
  <vehicle id="N_8_5" type="car" route="N_straight" depart="267.50" departLane="best" departSpeed="max" />
  <vehicle id="N_9_0" type="car" route="N_straight" depart="272.50" departLane="best" departSpeed="max" />
  <vehicle id="W_9_0" type="car" route="W_straight" depart="273.75" departLane="best" departSpeed="max" />
  <vehicle id="N_9_1" type="car" route="N_straight" depart="277.50" departLane="best" departSpeed="max" />
  <vehicle id="E_9_0" type="car" route="E_straight" depart="277.50" departLane="best" departSpeed="max" />
  <vehicle id="W_9_1" type="car" route="W_straight" depart="281.25" departLane="best" departSpeed="max" />
  <vehicle id="N_9_2" type="car" route="N_straight" depart="282.50" departLane="best" departSpeed="max" />
  <vehicle id="S_9_0" type="car" route="S_straight" depart="285.00" departLane="best" departSpeed="max" />
  <vehicle id="N_9_3" type="car" route="N_straight" depart="287.50" departLane="best" departSpeed="max" />
  <vehicle id="W_9_2" type="car" route="W_straight" depart="288.75" departLane="best" departSpeed="max" />
  <vehicle id="N_9_4" type="car" route="N_straight" depart="292.50" departLane="best" departSpeed="max" />
  <vehicle id="E_9_1" type="car" route="E_straight" depart="292.50" departLane="best" departSpeed="max" />
  <vehicle id="W_9_3" type="car" route="W_straight" depart="296.25" departLane="best" departSpeed="max" />
  <vehicle id="N_9_5" type="car" route="N_straight" depart="297.50" departLane="best" departSpeed="max" />
</routes>