<?xml version="1.0" encoding="UTF-8"?>

<!-- generated on 2026-06-06 17:21:11 by Eclipse SUMO netconvert Version 1.20.0
<configuration xmlns:xsi="http://www.w3.org/2001/XMLSchema-instance" xsi:noNamespaceSchemaLocation="http://sumo.dlr.de/xsd/netconvertConfiguration.xsd">

    <input>
        <node-files value="/Users/mouadassargual/Desktop/Thesis Mouad/sumo/simple_intersection/simple.nod.xml"/>
        <edge-files value="/Users/mouadassargual/Desktop/Thesis Mouad/sumo/simple_intersection/simple.edg.xml"/>
        <connection-files value="/Users/mouadassargual/Desktop/Thesis Mouad/sumo/simple_intersection/simple.con.xml"/>
    </input>

    <output>
        <output-file value="/Users/mouadassargual/Desktop/Thesis Mouad/sumo/simple_intersection/simple.net.xml"/>
    </output>

    <tls_building>
        <tls.guess value="true"/>
    </tls_building>

    <junctions>
        <no-turnarounds value="true"/>
    </junctions>

</configuration>
-->

<net version="1.20" junctionCornerDetail="5" limitTurnSpeed="5.50" xmlns:xsi="http://www.w3.org/2001/XMLSchema-instance" xsi:noNamespaceSchemaLocation="http://sumo.dlr.de/xsd/net_file.xsd">

    <location netOffset="250.00,250.00" convBoundary="0.00,0.00,500.00,500.00" origBoundary="-250.00,-250.00,250.00,250.00" projParameter="!"/>

    <edge id=":center_0" function="internal">
        <lane id=":center_0_0" index="0" speed="13.90" length="14.40" shape="248.40,257.20 248.40,242.80"/>
    </edge>
    <edge id=":center_1" function="internal">
        <lane id=":center_1_0" index="0" speed="13.90" length="14.40" shape="257.20,251.60 242.80,251.60"/>
    </edge>
    <edge id=":center_2" function="internal">
        <lane id=":center_2_0" index="0" speed="13.90" length="14.40" shape="251.60,242.80 251.60,257.20"/>
    </edge>
    <edge id=":center_3" function="internal">
        <lane id=":center_3_0" index="0" speed="13.90" length="14.40" shape="242.80,248.40 257.20,248.40"/>
    </edge>

    <edge id="E_in" from="E" to="center" priority="1">
        <lane id="E_in_0" index="0" speed="13.90" length="242.80" shape="500.00,251.60 257.20,251.60"/>
    </edge>
    <edge id="E_out" from="center" to="E" priority="1">
        <lane id="E_out_0" index="0" speed="13.90" length="242.80" shape="257.20,248.40 500.00,248.40"/>
    </edge>
    <edge id="N_in" from="N" to="center" priority="1">
        <lane id="N_in_0" index="0" speed="13.90" length="242.80" shape="248.40,500.00 248.40,257.20"/>
    </edge>
    <edge id="N_out" from="center" to="N" priority="1">
        <lane id="N_out_0" index="0" speed="13.90" length="242.80" shape="251.60,257.20 251.60,500.00"/>
    </edge>
    <edge id="S_in" from="S" to="center" priority="1">
        <lane id="S_in_0" index="0" speed="13.90" length="242.80" shape="251.60,0.00 251.60,242.80"/>
    </edge>
    <edge id="S_out" from="center" to="S" priority="1">
        <lane id="S_out_0" index="0" speed="13.90" length="242.80" shape="248.40,242.80 248.40,0.00"/>
    </edge>
    <edge id="W_in" from="W" to="center" priority="1">
        <lane id="W_in_0" index="0" speed="13.90" length="242.80" shape="0.00,248.40 242.80,248.40"/>
    </edge>
    <edge id="W_out" from="center" to="W" priority="1">
        <lane id="W_out_0" index="0" speed="13.90" length="242.80" shape="242.80,251.60 0.00,251.60"/>
    </edge>

    <tlLogic id="center" type="static" programID="0" offset="0">
        <phase duration="42" state="GrGr"/>
        <phase duration="3"  state="yryr"/>
        <phase duration="42" state="rGrG"/>
        <phase duration="3"  state="ryry"/>
    </tlLogic>

    <junction id="E" type="dead_end" x="500.00" y="250.00" incLanes="E_out_0" intLanes="" shape="500.00,250.00 500.00,246.80 500.00,250.00"/>
    <junction id="N" type="dead_end" x="250.00" y="500.00" incLanes="N_out_0" intLanes="" shape="250.00,500.00 253.20,500.00 250.00,500.00"/>
    <junction id="S" type="dead_end" x="250.00" y="0.00" incLanes="S_out_0" intLanes="" shape="250.00,0.00 246.80,0.00 250.00,0.00"/>
    <junction id="W" type="dead_end" x="0.00" y="250.00" incLanes="W_out_0" intLanes="" shape="0.00,250.00 0.00,253.20 0.00,250.00"/>
    <junction id="center" type="traffic_light" x="250.00" y="250.00" incLanes="N_in_0 E_in_0 S_in_0 W_in_0" intLanes=":center_0_0 :center_1_0 :center_2_0 :center_3_0" shape="246.80,257.20 253.20,257.20 253.64,254.98 254.20,254.20 254.98,253.64 255.98,253.31 257.20,253.20 257.20,246.80 254.98,246.36 254.20,245.80 253.64,245.02 253.31,244.02 253.20,242.80 246.80,242.80 246.36,245.02 245.80,245.80 245.02,246.36 244.02,246.69 242.80,246.80 242.80,253.20 245.02,253.64 245.80,254.20 246.36,254.98 246.69,255.98">
        <request index="0" response="0000" foes="1010" cont="0"/>
        <request index="1" response="0101" foes="0101" cont="0"/>
        <request index="2" response="0000" foes="1010" cont="0"/>
        <request index="3" response="0101" foes="0101" cont="0"/>
    </junction>

    <connection from="E_in" to="W_out" fromLane="0" toLane="0" via=":center_1_0" tl="center" linkIndex="1" dir="s" state="o"/>
    <connection from="N_in" to="S_out" fromLane="0" toLane="0" via=":center_0_0" tl="center" linkIndex="0" dir="s" state="O"/>
    <connection from="S_in" to="N_out" fromLane="0" toLane="0" via=":center_2_0" tl="center" linkIndex="2" dir="s" state="O"/>
    <connection from="W_in" to="E_out" fromLane="0" toLane="0" via=":center_3_0" tl="center" linkIndex="3" dir="s" state="o"/>

    <connection from=":center_0" to="S_out" fromLane="0" toLane="0" dir="s" state="M"/>
    <connection from=":center_1" to="W_out" fromLane="0" toLane="0" dir="s" state="M"/>
    <connection from=":center_2" to="N_out" fromLane="0" toLane="0" dir="s" state="M"/>
    <connection from=":center_3" to="E_out" fromLane="0" toLane="0" dir="s" state="M"/>

</net>
