<?xml version='1.0' encoding='utf-8'?>
<routes>
  <vType id="car" accel="2.6" decel="4.5" sigma="0.5" length="4.5" maxSpeed="13.9" />
  <vType id="motorcycle" accel="3.0" decel="5.0" sigma="0.5" length="2.0" maxSpeed="16.7" />
  <vType id="bus" accel="1.5" decel="3.5" sigma="0.5" length="12.0" maxSpeed="11.1" />
  <route id="N_to_S" edges="-591072157#1 666212794#1" />
  <route id="S_to_N" edges="-28805336#0 591072157#1" />
  <route id="E_to_W" edges="180596058#2 -440316493#2" />
  <route id="W_to_E" edges="440316493#2 -180596058#2" />
  <vehicle id="N_0_0" type="car" route="N_to_S" depart="3.00" departLane="best" departSpeed="max" />
  <vehicle id="W_0_0" type="car" route="W_to_E" depart="3.75" departLane="best" departSpeed="max" />
  <vehicle id="N_0_1" type="car" route="N_to_S" depart="9.00" departLane="best" departSpeed="max" />
  <vehicle id="W_0_1" type="car" route="W_to_E" depart="11.25" departLane="best" departSpeed="max" />
  <vehicle id="N_0_2" type="car" route="N_to_S" depart="15.00" departLane="best" departSpeed="max" />
  <vehicle id="S_0_0" type="car" route="S_to_N" depart="15.00" departLane="best" departSpeed="max" />
  <vehicle id="E_0_0" type="car" route="E_to_W" depart="15.00" departLane="best" departSpeed="max" />
  <vehicle id="W_0_2" type="car" route="W_to_E" depart="18.75" departLane="best" departSpeed="max" />
  <vehicle id="N_0_3" type="car" route="N_to_S" depart="21.00" departLane="best" departSpeed="max" />
  <vehicle id="W_0_3" type="car" route="W_to_E" depart="26.25" departLane="best" departSpeed="max" />
  <vehicle id="N_0_4" type="car" route="N_to_S" depart="27.00" departLane="best" departSpeed="max" />
  <vehicle id="N_1_0" type="car" route="N_to_S" depart="32.50" departLane="best" departSpeed="max" />
  <vehicle id="W_1_0" type="car" route="W_to_E" depart="33.75" departLane="best" departSpeed="max" />
  <vehicle id="N_1_1" type="car" route="N_to_S" depart="37.50" departLane="best" departSpeed="max" />
  <vehicle id="E_1_0" type="car" route="E_to_W" depart="37.50" departLane="best" departSpeed="max" />
  <vehicle id="W_1_1" type="car" route="W_to_E" depart="41.25" departLane="best" departSpeed="max" />
  <vehicle id="N_1_2" type="car" route="N_to_S" depart="42.50" departLane="best" departSpeed="max" />
  <vehicle id="S_1_0" type="car" route="S_to_N" depart="45.00" departLane="best" departSpeed="max" />
  <vehicle id="N_1_3" type="car" route="N_to_S" depart="47.50" departLane="best" departSpeed="max" />
  <vehicle id="W_1_2" type="car" route="W_to_E" depart="48.75" departLane="best" departSpeed="max" />
  <vehicle id="N_1_4" type="car" route="N_to_S" depart="52.50" departLane="best" departSpeed="max" />
  <vehicle id="E_1_1" type="car" route="E_to_W" depart="52.50" departLane="best" departSpeed="max" />
  <vehicle id="W_1_3" type="car" route="W_to_E" depart="56.25" departLane="best" departSpeed="max" />
  <vehicle id="N_1_5" type="car" route="N_to_S" depart="57.50" departLane="best" departSpeed="max" />
  <vehicle id="N_2_0" type="car" route="N_to_S" depart="62.14" departLane="best" departSpeed="max" />
  <vehicle id="W_2_0" type="car" route="W_to_E" depart="63.75" departLane="best" departSpeed="max" />
  <vehicle id="N_2_1" type="car" route="N_to_S" depart="66.43" departLane="best" departSpeed="max" />
  <vehicle id="E_2_0" type="car" route="E_to_W" depart="67.50" departLane="best" departSpeed="max" />
  <vehicle id="N_2_2" type="car" route="N_to_S" depart="70.71" departLane="best" departSpeed="max" />
  <vehicle id="W_2_1" type="car" route="W_to_E" depart="71.25" departLane="best" departSpeed="max" />
  <vehicle id="N_2_3" type="car" route="N_to_S" depart="75.00" departLane="best" departSpeed="max" />
  <vehicle id="W_2_2" type="car" route="W_to_E" depart="78.75" departLane="best" departSpeed="max" />
  <vehicle id="N_2_4" type="car" route="N_to_S" depart="79.29" departLane="best" departSpeed="max" />
  <vehicle id="E_2_1" type="car" route="E_to_W" depart="82.50" departLane="best" departSpeed="max" />
  <vehicle id="N_2_5" type="car" route="N_to_S" depart="83.57" departLane="best" departSpeed="max" />
  <vehicle id="W_2_3" type="car" route="W_to_E" depart="86.25" departLane="best" departSpeed="max" />
  <vehicle id="N_2_6" type="car" route="N_to_S" depart="87.86" departLane="best" departSpeed="max" />
  <vehicle id="N_3_0" type="car" route="N_to_S" depart="93.00" departLane="best" departSpeed="max" />
  <vehicle id="W_3_0" type="car" route="W_to_E" depart="93.75" departLane="best" departSpeed="max" />
  <vehicle id="E_3_0" type="car" route="E_to_W" depart="97.50" departLane="best" departSpeed="max" />
  <vehicle id="N_3_1" type="car" route="N_to_S" depart="99.00" departLane="best" departSpeed="max" />
  <vehicle id="W_3_1" type="car" route="W_to_E" depart="101.25" departLane="best" departSpeed="max" />
  <vehicle id="N_3_2" type="car" route="N_to_S" depart="105.00" departLane="best" departSpeed="max" />
  <vehicle id="S_3_0" type="car" route="S_to_N" depart="105.00" departLane="best" departSpeed="max" />
  <vehicle id="W_3_2" type="car" route="W_to_E" depart="108.75" departLane="best" departSpeed="max" />
  <vehicle id="N_3_3" type="car" route="N_to_S" depart="111.00" departLane="best" departSpeed="max" />
  <vehicle id="E_3_1" type="car" route="E_to_W" depart="112.50" departLane="best" departSpeed="max" />
  <vehicle id="W_3_3" type="car" route="W_to_E" depart="116.25" departLane="best" departSpeed="max" />
  <vehicle id="N_3_4" type="car" route="N_to_S" depart="117.00" departLane="best" departSpeed="max" />
  <vehicle id="N_4_0" type="car" route="N_to_S" depart="123.00" departLane="best" departSpeed="max" />
  <vehicle id="W_4_0" type="car" route="W_to_E" depart="123.75" departLane="best" departSpeed="max" />
  <vehicle id="E_4_0" type="car" route="E_to_W" depart="127.50" departLane="best" departSpeed="max" />
  <vehicle id="N_4_1" type="car" route="N_to_S" depart="129.00" departLane="best" departSpeed="max" />
  <vehicle id="W_4_1" type="car" route="W_to_E" depart="131.25" departLane="best" departSpeed="max" />
  <vehicle id="N_4_2" type="car" route="N_to_S" depart="135.00" departLane="best" departSpeed="max" />
  <vehicle id="S_4_0" type="car" route="S_to_N" depart="135.00" departLane="best" departSpeed="max" />
  <vehicle id="W_4_2" type="car" route="W_to_E" depart="138.75" departLane="best" departSpeed="max" />
  <vehicle id="N_4_3" type="car" route="N_to_S" depart="141.00" departLane="best" departSpeed="max" />
  <vehicle id="E_4_1" type="car" route="E_to_W" depart="142.50" departLane="best" departSpeed="max" />
  <vehicle id="W_4_3" type="car" route="W_to_E" depart="146.25" departLane="best" departSpeed="max" />
  <vehicle id="N_4_4" type="car" route="N_to_S" depart="147.00" departLane="best" departSpeed="max" />
  <vehicle id="N_5_0" type="car" route="N_to_S" depart="152.14" departLane="best" departSpeed="max" />
  <vehicle id="W_5_0" type="car" route="W_to_E" depart="153.75" departLane="best" departSpeed="max" />
  <vehicle id="N_5_1" type="car" route="N_to_S" depart="156.43" departLane="best" departSpeed="max" />
  <vehicle id="E_5_0" type="car" route="E_to_W" depart="157.50" departLane="best" departSpeed="max" />
  <vehicle id="N_5_2" type="car" route="N_to_S" depart="160.71" departLane="best" departSpeed="max" />
  <vehicle id="W_5_1" type="car" route="W_to_E" depart="161.25" departLane="best" departSpeed="max" />
  <vehicle id="N_5_3" type="car" route="N_to_S" depart="165.00" departLane="best" departSpeed="max" />
  <vehicle id="S_5_0" type="car" route="S_to_N" depart="165.00" departLane="best" departSpeed="max" />
  <vehicle id="W_5_2" type="car" route="W_to_E" depart="168.75" departLane="best" departSpeed="max" />
  <vehicle id="N_5_4" type="car" route="N_to_S" depart="169.29" departLane="best" departSpeed="max" />
  <vehicle id="E_5_1" type="car" route="E_to_W" depart="172.50" departLane="best" departSpeed="max" />
  <vehicle id="N_5_5" type="car" route="N_to_S" depart="173.57" departLane="best" departSpeed="max" />
  <vehicle id="W_5_3" type="car" route="W_to_E" depart="176.25" departLane="best" departSpeed="max" />
  <vehicle id="N_5_6" type="car" route="N_to_S" depart="177.86" departLane="best" departSpeed="max" />
  <vehicle id="N_6_0" type="car" route="N_to_S" depart="182.14" departLane="best" departSpeed="max" />
  <vehicle id="W_6_0" type="car" route="W_to_E" depart="183.75" departLane="best" departSpeed="max" />
  <vehicle id="N_6_1" type="car" route="N_to_S" depart="186.43" departLane="best" departSpeed="max" />
  <vehicle id="N_6_2" type="car" route="N_to_S" depart="190.71" departLane="best" departSpeed="max" />
  <vehicle id="W_6_1" type="car" route="W_to_E" depart="191.25" departLane="best" departSpeed="max" />
  <vehicle id="N_6_3" type="car" route="N_to_S" depart="195.00" departLane="best" departSpeed="max" />
  <vehicle id="S_6_0" type="car" route="S_to_N" depart="195.00" departLane="best" departSpeed="max" />
  <vehicle id="E_6_0" type="car" route="E_to_W" depart="195.00" departLane="best" departSpeed="max" />
  <vehicle id="W_6_2" type="car" route="W_to_E" depart="198.75" departLane="best" departSpeed="max" />
  <vehicle id="N_6_4" type="car" route="N_to_S" depart="199.29" departLane="best" departSpeed="max" />
  <vehicle id="N_6_5" type="car" route="N_to_S" depart="203.57" departLane="best" departSpeed="max" />
  <vehicle id="W_6_3" type="car" route="W_to_E" depart="206.25" departLane="best" departSpeed="max" />
  <vehicle id="N_6_6" type="car" route="N_to_S" depart="207.86" departLane="best" departSpeed="max" />
  <vehicle id="N_7_0" type="car" route="N_to_S" depart="212.14" departLane="best" departSpeed="max" />
  <vehicle id="W_7_0" type="car" route="W_to_E" depart="213.75" departLane="best" departSpeed="max" />
  <vehicle id="N_7_1" type="car" route="N_to_S" depart="216.43" departLane="best" departSpeed="max" />
  <vehicle id="N_7_2" type="car" route="N_to_S" depart="220.71" departLane="best" departSpeed="max" />
  <vehicle id="W_7_1" type="car" route="W_to_E" depart="221.25" departLane="best" departSpeed="max" />
  <vehicle id="N_7_3" type="car" route="N_to_S" depart="225.00" departLane="best" departSpeed="max" />
  <vehicle id="S_7_0" type="car" route="S_to_N" depart="225.00" departLane="best" departSpeed="max" />
  <vehicle id="E_7_0" type="car" route="E_to_W" depart="225.00" departLane="best" departSpeed="max" />
  <vehicle id="W_7_2" type="car" route="W_to_E" depart="228.75" departLane="best" departSpeed="max" />
  <vehicle id="N_7_4" type="car" route="N_to_S" depart="229.29" departLane="best" departSpeed="max" />
  <vehicle id="N_7_5" type="car" route="N_to_S" depart="233.57" departLane="best" departSpeed="max" />
  <vehicle id="W_7_3" type="car" route="W_to_E" depart="236.25" departLane="best" departSpeed="max" />
  <vehicle id="N_7_6" type="car" route="N_to_S" depart="237.86" departLane="best" departSpeed="max" />
  <vehicle id="N_8_0" type="car" route="N_to_S" depart="242.50" departLane="best" departSpeed="max" />
  <vehicle id="W_8_0" type="car" route="W_to_E" depart="243.75" departLane="best" departSpeed="max" />
  <vehicle id="N_8_1" type="car" route="N_to_S" depart="247.50" departLane="best" departSpeed="max" />
  <vehicle id="E_8_0" type="car" route="E_to_W" depart="247.50" departLane="best" departSpeed="max" />
  <vehicle id="W_8_1" type="car" route="W_to_E" depart="251.25" departLane="best" departSpeed="max" />
  <vehicle id="N_8_2" type="car" route="N_to_S" depart="252.50" departLane="best" departSpeed="max" />
  <vehicle id="S_8_0" type="car" route="S_to_N" depart="255.00" departLane="best" departSpeed="max" />
  <vehicle id="N_8_3" type="car" route="N_to_S" depart="257.50" departLane="best" departSpeed="max" />
  <vehicle id="W_8_2" type="car" route="W_to_E" depart="258.75" departLane="best" departSpeed="max" />
  <vehicle id="N_8_4" type="car" route="N_to_S" depart="262.50" departLane="best" departSpeed="max" />
  <vehicle id="E_8_1" type="car" route="E_to_W" depart="262.50" departLane="best" departSpeed="max" />
  <vehicle id="W_8_3" type="car" route="W_to_E" depart="266.25" departLane="best" departSpeed="max" />
  <vehicle id="N_8_5" type="car" route="N_to_S" depart="267.50" departLane="best" departSpeed="max" />
  <vehicle id="N_9_0" type="car" route="N_to_S" depart="272.50" departLane="best" departSpeed="max" />
  <vehicle id="W_9_0" type="car" route="W_to_E" depart="273.75" departLane="best" departSpeed="max" />
  <vehicle id="N_9_1" type="car" route="N_to_S" depart="277.50" departLane="best" departSpeed="max" />
  <vehicle id="E_9_0" type="car" route="E_to_W" depart="277.50" departLane="best" departSpeed="max" />
  <vehicle id="W_9_1" type="car" route="W_to_E" depart="281.25" departLane="best" departSpeed="max" />
  <vehicle id="N_9_2" type="car" route="N_to_S" depart="282.50" departLane="best" departSpeed="max" />
  <vehicle id="S_9_0" type="car" route="S_to_N" depart="285.00" departLane="best" departSpeed="max" />
  <vehicle id="N_9_3" type="car" route="N_to_S" depart="287.50" departLane="best" departSpeed="max" />
  <vehicle id="W_9_2" type="car" route="W_to_E" depart="288.75" departLane="best" departSpeed="max" />
  <vehicle id="N_9_4" type="car" route="N_to_S" depart="292.50" departLane="best" departSpeed="max" />
  <vehicle id="E_9_1" type="car" route="E_to_W" depart="292.50" departLane="best" departSpeed="max" />
  <vehicle id="W_9_3" type="car" route="W_to_E" depart="296.25" departLane="best" departSpeed="max" />
  <vehicle id="N_9_5" type="car" route="N_to_S" depart="297.50" departLane="best" departSpeed="max" />
</routes>