<?xml version='1.0' encoding='utf-8'?>
<configuration>
  <input>
    <net-file value="agadir_controlled.net.xml" />
    <route-files value="agadir.rou.xml" />
  </input>
  <time>
    <begin value="0" />
    <end value="600" />
    <step-length value="1" />
  </time>
  <processing>
    <ignore-route-errors value="true" />
  </processing>
</configuration>