<?xml version="1.0" encoding="UTF-8"?>

<!-- generated on 2026-06-06 17:42:26 by Eclipse SUMO netconvert Version 1.20.0
<configuration xmlns:xsi="http://www.w3.org/2001/XMLSchema-instance" xsi:noNamespaceSchemaLocation="http://sumo.dlr.de/xsd/netconvertConfiguration.xsd">

    <input>
        <type-files value="/opt/homebrew/share/sumo/data/typemap/osmNetconvert.typ.xml"/>
        <osm-files value="/Users/mouadassargual/Desktop/Thesis Mouad/sumo/agadir_talborjt.osm"/>
    </input>

    <output>
        <output-file value="/Users/mouadassargual/Desktop/Thesis Mouad/sumo/agadir_talborjt/agadir_controlled.net.xml"/>
    </output>

    <projection>
        <proj.utm value="true"/>
    </projection>

    <processing>
        <geometry.remove value="true"/>
        <roundabouts.guess value="true"/>
    </processing>

    <tls_building>
        <tls.set value="cluster_13875345940_13875345941_13880325192_5153644277_#2more"/>
        <tls.default-type value="static"/>
    </tls_building>

    <ramp_guessing>
        <ramps.guess value="true"/>
    </ramp_guessing>

    <junctions>
        <junctions.join value="true"/>
    </junctions>

</configuration>
-->

<net version="1.20" junctionCornerDetail="5" limitTurnSpeed="5.50" xmlns:xsi="http://www.w3.org/2001/XMLSchema-instance" xsi:noNamespaceSchemaLocation="http://sumo.dlr.de/xsd/net_file.xsd">

    <location netOffset="-442514.42,-3365377.53" convBoundary="0.00,0.00,712.55,624.80" origBoundary="-9.598589,30.419125,-9.591135,30.424729" projParameter="+proj=utm +zone=29 +ellps=WGS84 +datum=WGS84 +units=m +no_defs"/>

    <type id="highway.footway" priority="1" numLanes="1" speed="2.78" allow="pedestrian" oneway="1" width="2.00"/>
    <type id="highway.living_street" priority="2" numLanes="1" speed="2.78" disallow="tram rail_urban rail rail_electric rail_fast ship container cable_car subway aircraft wheelchair scooter drone" oneway="0"/>
    <type id="highway.path" priority="1" numLanes="1" speed="5.56" allow="pedestrian bicycle" oneway="0" width="2.00"/>
    <type id="highway.pedestrian" priority="1" numLanes="1" speed="2.78" allow="pedestrian" oneway="1" width="2.00"/>
    <type id="highway.residential" priority="3" numLanes="1" speed="13.89" disallow="tram rail_urban rail rail_electric rail_fast ship container cable_car subway aircraft wheelchair scooter drone" oneway="0"/>
    <type id="highway.service" priority="1" numLanes="1" speed="5.56" allow="pedestrian delivery bicycle" oneway="0"/>
    <type id="highway.steps" priority="1" numLanes="1" speed="1.39" allow="pedestrian" oneway="1" width="2.00"/>
    <type id="highway.tertiary" priority="10" numLanes="1" speed="22.22" disallow="tram rail_urban rail rail_electric rail_fast ship container cable_car subway aircraft wheelchair scooter drone" oneway="0"/>

    <edge id=":1054643828_0" function="internal">
        <lane id=":1054643828_0_0" index="0" disallow="tram rail_urban rail rail_electric rail_fast ship container cable_car subway aircraft wheelchair scooter drone" speed="3.65" length="4.67" shape="626.13,453.64 626.34,455.07 626.02,455.90 625.15,456.14 623.76,455.79"/>
    </edge>
    <edge id=":1063305181_0" function="internal">
        <lane id=":1063305181_0_0" index="0" disallow="tram rail_urban rail rail_electric rail_fast ship container cable_car subway aircraft wheelchair scooter drone" speed="6.44" length="9.03" shape="450.36,265.30 448.43,263.72 446.48,263.16 444.50,263.61 442.49,265.08"/>
    </edge>
    <edge id=":1063305181_1" function="internal">
        <lane id=":1063305181_1_0" index="0" disallow="tram rail_urban rail rail_electric rail_fast ship container cable_car subway aircraft wheelchair scooter drone" speed="22.22" length="14.38" shape="450.36,265.30 440.73,254.62"/>
    </edge>
    <edge id=":1063305181_2" function="internal">
        <lane id=":1063305181_2_0" index="0" disallow="tram rail_urban rail rail_electric rail_fast ship container cable_car subway aircraft wheelchair scooter drone" speed="3.65" length="1.44" shape="450.36,265.30 450.13,263.87"/>
    </edge>
    <edge id=":1063305181_9" function="internal">
        <lane id=":1063305181_9_0" index="0" disallow="tram rail_urban rail rail_electric rail_fast ship container cable_car subway aircraft wheelchair scooter drone" speed="3.65" length="3.23" shape="450.13,263.87 450.45,263.04 451.31,262.79 452.71,263.14"/>
    </edge>
    <edge id=":1063305181_3" function="internal">
        <lane id=":1063305181_3_0" index="0" disallow="tram rail_urban rail rail_electric rail_fast ship container cable_car subway aircraft wheelchair scooter drone" speed="22.22" length="14.32" shape="443.12,252.50 452.71,263.14"/>
    </edge>
    <edge id=":1063305181_4" function="internal">
        <lane id=":1063305181_4_0" index="0" disallow="tram rail_urban rail rail_electric rail_fast ship container cable_car subway aircraft wheelchair scooter drone" speed="8.14" length="3.93" shape="443.12,252.50 445.22,255.69 445.24,255.81"/>
    </edge>
    <edge id=":1063305181_5" function="internal">
        <lane id=":1063305181_5_0" index="0" disallow="tram rail_urban rail rail_electric rail_fast ship container cable_car subway aircraft wheelchair scooter drone" speed="3.65" length="1.44" shape="443.12,252.50 443.32,253.93"/>
    </edge>
    <edge id=":1063305181_10" function="internal">
        <lane id=":1063305181_10_0" index="0" disallow="tram rail_urban rail rail_electric rail_fast ship container cable_car subway aircraft wheelchair scooter drone" speed="8.14" length="10.28" shape="445.24,255.81 445.81,258.86 444.90,261.98 442.49,265.08"/>
    </edge>
    <edge id=":1063305181_11" function="internal">
        <lane id=":1063305181_11_0" index="0" disallow="tram rail_urban rail rail_electric rail_fast ship container cable_car subway aircraft wheelchair scooter drone" speed="3.65" length="3.23" shape="443.32,253.93 442.99,254.76 442.12,254.99 440.73,254.62"/>
    </edge>
    <edge id=":1063305181_6" function="internal">
        <lane id=":1063305181_6_0" index="0" disallow="tram rail_urban rail rail_electric rail_fast ship container cable_car subway aircraft wheelchair scooter drone" speed="6.68" length="9.23" shape="440.26,262.78 441.84,260.76 442.44,258.73 442.07,256.68 440.73,254.62"/>
    </edge>
    <edge id=":1063305181_7" function="internal">
        <lane id=":1063305181_7_0" index="0" disallow="tram rail_urban rail rail_electric rail_fast ship container cable_car subway aircraft wheelchair scooter drone" speed="7.95" length="14.31" shape="440.26,262.78 443.44,260.47 446.58,259.75 449.67,260.64 452.71,263.14"/>
    </edge>
    <edge id=":1063305181_8" function="internal">
        <lane id=":1063305181_8_0" index="0" disallow="tram rail_urban rail rail_electric rail_fast ship container cable_car subway aircraft wheelchair scooter drone" speed="3.65" length="4.67" shape="440.26,262.78 441.68,262.52 442.52,262.81 442.79,263.67 442.49,265.08"/>
    </edge>
    <edge id=":1063305190_0" function="internal">
        <lane id=":1063305190_0_0" index="0" disallow="tram rail_urban rail rail_electric rail_fast ship container cable_car subway aircraft wheelchair scooter drone" speed="3.65" length="4.67" shape="356.34,296.58 354.90,296.67 354.10,296.27 353.93,295.39 354.40,294.03"/>
    </edge>
    <edge id=":1063305211_0" function="internal">
        <lane id=":1063305211_0_0" index="0" disallow="tram rail_urban rail rail_electric rail_fast ship container cable_car subway aircraft wheelchair scooter drone" speed="6.21" length="9.05" shape="460.12,358.24 458.23,359.93 457.45,361.76 457.77,363.72 459.19,365.82"/>
    </edge>
    <edge id=":1063305211_1" function="internal">
        <lane id=":1063305211_1_0" index="0" disallow="tram rail_urban rail rail_electric rail_fast ship container cable_car subway aircraft wheelchair scooter drone" speed="22.22" length="14.44" shape="460.12,358.24 448.01,366.11"/>
    </edge>
    <edge id=":1063305211_2" function="internal">
        <lane id=":1063305211_2_0" index="0" disallow="tram rail_urban rail rail_electric rail_fast ship container cable_car subway aircraft wheelchair scooter drone" speed="3.65" length="1.44" shape="460.12,358.24 458.68,358.23"/>
    </edge>
    <edge id=":1063305211_6" function="internal">
        <lane id=":1063305211_6_0" index="0" disallow="tram rail_urban rail rail_electric rail_fast ship container cable_car subway aircraft wheelchair scooter drone" speed="3.65" length="3.23" shape="458.68,358.23 457.90,357.79 457.79,356.90 458.34,355.57"/>
    </edge>
    <edge id=":1063305211_3" function="internal">
        <lane id=":1063305211_3_0" index="0" disallow="tram rail_urban rail rail_electric rail_fast ship container cable_car subway aircraft wheelchair scooter drone" speed="22.22" length="14.36" shape="446.30,363.40 458.34,355.57"/>
    </edge>
    <edge id=":1063305211_4" function="internal">
        <lane id=":1063305211_4_0" index="0" disallow="tram rail_urban rail rail_electric rail_fast ship container cable_car subway aircraft wheelchair scooter drone" speed="8.02" length="2.27" shape="446.30,363.40 448.47,362.73"/>
    </edge>
    <edge id=":1063305211_5" function="internal">
        <lane id=":1063305211_5_0" index="0" disallow="tram rail_urban rail rail_electric rail_fast ship container cable_car subway aircraft wheelchair scooter drone" speed="3.65" length="1.44" shape="446.30,363.40 447.74,363.44"/>
    </edge>
    <edge id=":1063305211_7" function="internal">
        <lane id=":1063305211_7_0" index="0" disallow="tram rail_urban rail rail_electric rail_fast ship container cable_car subway aircraft wheelchair scooter drone" speed="8.02" length="10.10" shape="448.47,362.73 450.95,363.27 453.73,365.02 456.82,367.97"/>
    </edge>
    <edge id=":1063305211_8" function="internal">
        <lane id=":1063305211_8_0" index="0" disallow="tram rail_urban rail rail_electric rail_fast ship container cable_car subway aircraft wheelchair scooter drone" speed="3.65" length="3.23" shape="447.74,363.44 448.51,363.90 448.60,364.79 448.01,366.11"/>
    </edge>
    <edge id=":13875345942_0" function="internal">
        <lane id=":13875345942_0_0" index="0" disallow="tram rail_urban rail rail_electric rail_fast ship container cable_car subway aircraft wheelchair scooter drone" speed="22.22" length="5.68" shape="499.45,316.51 495.51,312.41"/>
    </edge>
    <edge id=":13875345942_1" function="internal">
        <lane id=":13875345942_1_0" index="0" disallow="tram rail_urban rail rail_electric rail_fast ship container cable_car subway aircraft wheelchair scooter drone" speed="22.22" length="5.87" shape="497.78,310.15 501.85,314.37"/>
    </edge>
    <edge id=":316703957_0" function="internal">
        <lane id=":316703957_0_0" index="0" disallow="tram rail_urban rail rail_electric rail_fast ship container cable_car subway aircraft wheelchair scooter drone" speed="3.65" length="4.67" shape="257.43,73.24 256.41,72.22 256.18,71.35 256.73,70.65 258.07,70.10"/>
    </edge>
    <edge id=":416779198_0" function="internal">
        <lane id=":416779198_0_0" index="0" disallow="tram rail_urban rail rail_electric rail_fast ship container cable_car subway aircraft wheelchair scooter drone" speed="2.78" length="4.67" shape="383.73,332.73 383.09,331.44 383.14,330.55 383.89,330.05 385.32,329.96"/>
    </edge>
    <edge id=":5153644312_0" function="internal">
        <lane id=":5153644312_0_0" index="0" disallow="tram rail_urban rail rail_electric rail_fast ship container cable_car subway aircraft wheelchair scooter drone" speed="3.65" length="4.67" shape="1.03,626.02 -0.40,626.19 -1.22,625.83 -1.43,624.96 -1.03,623.58"/>
    </edge>
    <edge id=":5653894916_0" function="internal">
        <lane id=":5653894916_0_0" index="0" disallow="tram rail_urban rail rail_electric rail_fast ship container cable_car subway aircraft wheelchair scooter drone" speed="22.22" length="0.29" shape="491.45,337.60 491.21,337.76"/>
    </edge>
    <edge id=":5653894916_1" function="internal">
        <lane id=":5653894916_1_0" index="0" disallow="tram rail_urban rail rail_electric rail_fast ship container cable_car subway aircraft wheelchair scooter drone" speed="22.22" length="0.16" shape="489.46,335.09 489.59,335.00"/>
    </edge>
    <edge id=":5918608226_0" function="internal">
        <lane id=":5918608226_0_0" index="0" allow="pedestrian delivery bicycle" speed="5.56" length="7.71" shape="498.10,295.07 496.79,294.29 494.67,293.11 492.54,292.07 491.19,291.77"/>
    </edge>
    <edge id=":5918608226_1" function="internal">
        <lane id=":5918608226_1_0" index="0" allow="pedestrian delivery bicycle" speed="5.56" length="15.43" shape="498.10,295.07 494.42,292.25 493.57,289.74 495.56,287.55 500.39,285.66"/>
    </edge>
    <edge id=":5918608226_2" function="internal">
        <lane id=":5918608226_2_0" index="0" allow="pedestrian delivery bicycle" speed="3.68" length="4.80" shape="498.10,295.07 497.77,293.63 498.04,292.75 498.90,292.43 500.36,292.68"/>
    </edge>
    <edge id=":5918608226_3" function="internal">
        <lane id=":5918608226_3_0" index="0" allow="pedestrian delivery bicycle" speed="4.63" length="6.44" shape="501.24,288.74 499.24,289.53 498.43,290.45 498.80,291.50 500.36,292.68"/>
    </edge>
    <edge id=":5918608226_4" function="internal">
        <lane id=":5918608226_4_0" index="0" allow="pedestrian delivery bicycle" speed="5.56" length="10.50" shape="501.24,288.74 491.19,291.77"/>
    </edge>
    <edge id=":5918608226_5" function="internal">
        <lane id=":5918608226_5_0" index="0" allow="pedestrian delivery bicycle" speed="3.65" length="4.67" shape="501.24,288.74 499.87,288.29 499.27,287.63 499.44,286.75 500.39,285.66"/>
    </edge>
    <edge id=":5918608226_6" function="internal">
        <lane id=":5918608226_6_0" index="0" allow="pedestrian delivery bicycle" speed="5.56" length="10.71" shape="490.13,288.75 500.39,285.66"/>
    </edge>
    <edge id=":5918608226_7" function="internal">
        <lane id=":5918608226_7_0" index="0" allow="pedestrian delivery bicycle" speed="5.56" length="11.12" shape="490.13,288.75 491.58,288.71 493.77,289.35 496.70,290.67 500.36,292.68"/>
    </edge>
    <edge id=":5918608226_8" function="internal">
        <lane id=":5918608226_8_0" index="0" allow="pedestrian delivery bicycle" speed="3.65" length="4.67" shape="490.13,288.75 491.52,289.11 492.17,289.73 492.05,290.62 491.19,291.77"/>
    </edge>
    <edge id=":5918608231_0" function="internal">
        <lane id=":5918608231_0_0" index="0" disallow="tram rail_urban rail rail_electric rail_fast ship container cable_car subway aircraft wheelchair scooter drone" speed="22.22" length="12.68" shape="482.98,299.86 474.09,290.82"/>
    </edge>
    <edge id=":5918608231_1" function="internal">
        <lane id=":5918608231_1_0" index="0" allow="pedestrian delivery bicycle" speed="6.95" length="3.69" shape="482.98,299.86 480.85,296.85"/>
    </edge>
    <edge id=":5918608231_7" function="internal">
        <lane id=":5918608231_7_0" index="0" allow="pedestrian delivery bicycle" speed="6.95" length="10.33" shape="480.85,296.85 480.80,294.18 482.83,291.85 486.95,289.87"/>
    </edge>
    <edge id=":5918608231_2" function="internal">
        <lane id=":5918608231_2_0" index="0" allow="pedestrian delivery bicycle" speed="4.81" length="5.98" shape="486.82,293.31 485.09,294.15 484.26,295.14 484.31,296.29 485.25,297.60"/>
    </edge>
    <edge id=":5918608231_3" function="internal">
        <lane id=":5918608231_3_0" index="0" allow="pedestrian delivery bicycle" speed="9.43" length="13.78" shape="486.82,293.31 483.08,294.19 479.72,294.06 476.72,292.94 474.09,290.82"/>
    </edge>
    <edge id=":5918608231_4" function="internal">
        <lane id=":5918608231_4_0" index="0" allow="pedestrian delivery bicycle" speed="3.74" length="5.03" shape="486.82,293.31 485.56,292.40 485.16,291.52 485.63,290.68 486.95,289.87"/>
    </edge>
    <edge id=":5918608231_5" function="internal">
        <lane id=":5918608231_5_0" index="0" allow="pedestrian delivery bicycle" speed="8.56" length="11.22" shape="476.43,288.64 478.39,290.11 480.79,290.80 483.65,290.72 486.95,289.87"/>
    </edge>
    <edge id=":5918608231_6" function="internal">
        <lane id=":5918608231_6_0" index="0" disallow="tram rail_urban rail rail_electric rail_fast ship container cable_car subway aircraft wheelchair scooter drone" speed="22.22" length="12.57" shape="476.43,288.64 485.25,297.60"/>
    </edge>
    <edge id=":5918608234_0" function="internal">
        <lane id=":5918608234_0_0" index="0" allow="pedestrian delivery bicycle" speed="5.56" length="10.89" shape="537.69,278.55 535.06,279.81 533.75,281.65 532.70,283.95 530.84,286.54"/>
    </edge>
    <edge id=":5918608234_1" function="internal">
        <lane id=":5918608234_1_0" index="0" allow="pedestrian delivery bicycle" speed="5.56" length="12.31" shape="537.69,278.55 525.80,281.77"/>
    </edge>
    <edge id=":5918608234_2" function="internal">
        <lane id=":5918608234_2_0" index="0" allow="pedestrian delivery bicycle" speed="3.65" length="4.67" shape="537.69,278.55 536.33,278.07 535.75,277.39 535.94,276.51 536.91,275.45"/>
    </edge>
    <edge id=":5918608234_3" function="internal">
        <lane id=":5918608234_3_0" index="0" allow="pedestrian delivery bicycle" speed="5.56" length="12.39" shape="524.95,278.69 536.91,275.45"/>
    </edge>
    <edge id=":5918608234_4" function="internal">
        <lane id=":5918608234_4_0" index="0" allow="pedestrian delivery bicycle" speed="5.56" length="20.90" shape="524.95,278.69 532.21,277.27 535.61,278.11 535.16,281.20 530.84,286.54"/>
    </edge>
    <edge id=":5918608234_5" function="internal">
        <lane id=":5918608234_5_0" index="0" allow="pedestrian delivery bicycle" speed="3.65" length="4.67" shape="524.95,278.69 526.32,279.14 526.92,279.80 526.75,280.68 525.80,281.77"/>
    </edge>
    <edge id=":5918608234_6" function="internal">
        <lane id=":5918608234_6_0" index="0" allow="pedestrian delivery bicycle" speed="4.83" length="8.09" shape="528.04,284.84 529.72,282.76 529.91,281.56 528.60,281.23 525.80,281.77"/>
    </edge>
    <edge id=":5918608234_7" function="internal">
        <lane id=":5918608234_7_0" index="0" allow="pedestrian delivery bicycle" speed="5.56" length="13.21" shape="528.04,284.84 530.21,282.03 531.96,279.25 533.97,276.92 536.91,275.45"/>
    </edge>
    <edge id=":5918608234_8" function="internal">
        <lane id=":5918608234_8_0" index="0" allow="pedestrian delivery bicycle" speed="3.68" length="4.79" shape="528.04,284.84 529.38,284.22 530.29,284.29 530.78,285.07 530.84,286.54"/>
    </edge>
    <edge id=":5918608236_0" function="internal">
        <lane id=":5918608236_0_0" index="0" disallow="tram rail_urban rail rail_electric rail_fast ship container cable_car subway aircraft wheelchair scooter drone" speed="22.22" length="10.04" shape="564.25,274.67 562.58,277.14 561.38,278.79 560.11,280.39 558.21,282.69"/>
    </edge>
    <edge id=":5918608236_1" function="internal">
        <lane id=":5918608236_1_0" index="0" allow="pedestrian delivery bicycle" speed="8.97" length="1.67" shape="564.25,274.67 563.25,275.40 562.83,275.51"/>
    </edge>
    <edge id=":5918608236_7" function="internal">
        <lane id=":5918608236_7_0" index="0" allow="pedestrian delivery bicycle" speed="8.97" length="8.13" shape="562.83,275.51 561.33,275.93 558.51,276.27 554.78,276.41"/>
    </edge>
    <edge id=":5918608236_2" function="internal">
        <lane id=":5918608236_2_0" index="0" allow="pedestrian delivery bicycle" speed="5.78" length="6.06" shape="556.09,273.49 557.90,274.12 559.42,274.23 560.65,273.82 561.59,272.90"/>
    </edge>
    <edge id=":5918608236_3" function="internal">
        <lane id=":5918608236_3_0" index="0" allow="pedestrian delivery bicycle" speed="6.70" length="11.56" shape="556.09,273.49 558.87,275.27 560.14,277.40 559.93,279.87 558.21,282.69"/>
    </edge>
    <edge id=":5918608236_4" function="internal">
        <lane id=":5918608236_4_0" index="0" allow="pedestrian delivery bicycle" speed="3.86" length="4.67" shape="556.09,273.49 556.86,274.71 556.89,275.61 556.20,276.17 554.78,276.41"/>
    </edge>
    <edge id=":5918608236_5" function="internal">
        <lane id=":5918608236_5_0" index="0" allow="pedestrian delivery bicycle" speed="4.70" length="6.47" shape="555.74,280.65 557.01,278.78 557.27,277.45 556.52,276.66 554.78,276.41"/>
    </edge>
    <edge id=":5918608236_6" function="internal">
        <lane id=":5918608236_6_0" index="0" disallow="tram rail_urban rail rail_electric rail_fast ship container cable_car subway aircraft wheelchair scooter drone" speed="22.22" length="9.72" shape="555.74,280.65 557.58,278.43 558.81,276.88 559.97,275.28 561.59,272.90"/>
    </edge>
    <edge id=":5918608246_0" function="internal">
        <lane id=":5918608246_0_0" index="0" disallow="tram rail_urban rail rail_electric rail_fast ship container cable_car subway aircraft wheelchair scooter drone" speed="3.65" length="4.67" shape="518.31,384.35 519.74,384.17 520.57,384.51 520.79,385.38 520.41,386.77"/>
    </edge>
    <edge id=":5918608247_0" function="internal">
        <lane id=":5918608247_0_0" index="0" disallow="tram rail_urban rail rail_electric rail_fast ship container cable_car subway aircraft wheelchair scooter drone" speed="3.65" length="4.67" shape="497.16,406.93 495.73,407.11 494.91,406.77 494.68,405.90 495.07,404.51"/>
    </edge>
    <edge id=":6297306726_0" function="internal">
        <lane id=":6297306726_0_0" index="0" disallow="tram rail_urban rail rail_electric rail_fast ship container cable_car subway aircraft wheelchair scooter drone" speed="3.65" length="4.67" shape="711.10,-0.69 712.34,-1.43 713.23,-1.44 713.78,-0.74 713.99,0.69"/>
    </edge>
    <edge id=":6717372498_0" function="internal">
        <lane id=":6717372498_0_0" index="0" allow="pedestrian bicycle" speed="2.89" length="2.92" width="2.00" shape="570.25,301.97 570.79,301.25 571.30,301.02 571.79,301.30 572.25,302.07"/>
    </edge>
    <edge id=":6717372503_0" function="internal">
        <lane id=":6717372503_0_0" index="0" allow="pedestrian bicycle" speed="5.56" length="9.38" width="2.00" shape="572.16,303.87 571.66,306.25 570.45,307.96 568.52,309.00 565.89,309.35"/>
    </edge>
    <edge id=":6717372503_1" function="internal">
        <lane id=":6717372503_1_0" index="0" allow="pedestrian bicycle" speed="2.89" length="2.92" width="2.00" shape="572.16,303.87 571.62,304.59 571.10,304.81 570.62,304.54 570.16,303.76"/>
    </edge>
    <edge id=":6717372503_2" function="internal">
        <lane id=":6717372503_2_0" index="0" allow="pedestrian bicycle" speed="5.51" length="6.29" width="2.00" shape="565.88,307.35 567.68,307.12 568.99,306.44 569.82,305.32 570.16,303.76"/>
    </edge>
    <edge id=":6717372503_3" function="internal">
        <lane id=":6717372503_3_0" index="0" allow="pedestrian bicycle" speed="2.89" length="2.92" width="2.00" shape="565.88,307.35 566.63,307.85 566.88,308.35 566.63,308.85 565.89,309.35"/>
    </edge>
    <edge id=":6717372504_0" function="internal">
        <lane id=":6717372504_0_0" index="0" allow="pedestrian bicycle" speed="2.89" length="2.92" width="2.00" shape="564.84,309.36 564.08,308.86 563.83,308.36 564.08,307.86 564.83,307.36"/>
    </edge>
    <edge id=":6847744135_0" function="internal">
        <lane id=":6847744135_0_0" index="0" disallow="tram rail_urban rail rail_electric rail_fast ship container cable_car subway aircraft wheelchair scooter drone" speed="2.78" length="4.67" shape="448.58,345.95 448.73,347.39 448.36,348.21 447.49,348.41 446.11,347.99"/>
    </edge>
    <edge id=":6848088400_0" function="internal">
        <lane id=":6848088400_0_0" index="0" disallow="tram rail_urban rail rail_electric rail_fast ship container cable_car subway aircraft wheelchair scooter drone" speed="22.22" length="5.82" shape="526.93,313.13 525.59,314.23 524.63,314.92 523.62,315.54 522.13,316.41"/>
    </edge>
    <edge id=":6848088400_1" function="internal">
        <lane id=":6848088400_1_0" index="0" disallow="tram rail_urban rail rail_electric rail_fast ship container cable_car subway aircraft wheelchair scooter drone" speed="22.22" length="4.83" shape="520.89,313.42 522.13,312.70 522.96,312.18 523.75,311.60 524.86,310.69"/>
    </edge>
    <edge id=":9983062757_0" function="internal">
        <lane id=":9983062757_0_0" index="0" disallow="tram rail_urban rail rail_electric rail_fast ship container cable_car subway aircraft wheelchair scooter drone" speed="22.22" length="0.16" shape="273.96,76.62 273.92,76.60 273.89,76.59 273.86,76.59 273.81,76.58"/>
    </edge>
    <edge id=":9983062757_1" function="internal">
        <lane id=":9983062757_1_0" index="0" disallow="tram rail_urban rail rail_electric rail_fast ship container cable_car subway aircraft wheelchair scooter drone" speed="22.22" length="0.47" shape="274.45,73.44 274.59,73.47 274.68,73.49 274.77,73.52 274.90,73.56"/>
    </edge>
    <edge id=":cluster_13875345940_13875345941_13880325192_5153644277_#2more_0" function="internal">
        <lane id=":cluster_13875345940_13875345941_13880325192_5153644277_#2more_0_0" index="0" disallow="tram rail_urban rail rail_electric rail_fast ship container cable_car subway aircraft wheelchair scooter drone" speed="11.81" length="29.78" shape="519.25,342.06 512.73,336.08 506.21,333.15 499.68,333.26 493.13,336.40"/>
    </edge>
    <edge id=":cluster_13875345940_13875345941_13880325192_5153644277_#2more_1" function="internal">
        <lane id=":cluster_13875345940_13875345941_13880325192_5153644277_#2more_1_0" index="0" disallow="tram rail_urban rail rail_electric rail_fast ship container cable_car subway aircraft wheelchair scooter drone" speed="15.28" length="29.99" shape="519.25,342.06 501.10,318.17"/>
    </edge>
    <edge id=":cluster_13875345940_13875345941_13880325192_5153644277_#2more_2" function="internal">
        <lane id=":cluster_13875345940_13875345941_13880325192_5153644277_#2more_2_0" index="0" disallow="tram rail_urban rail rail_electric rail_fast ship container cable_car subway aircraft wheelchair scooter drone" speed="11.07" length="6.53" shape="521.66,339.96 517.72,334.75"/>
    </edge>
    <edge id=":cluster_13875345940_13875345941_13880325192_5153644277_#2more_3" function="internal">
        <lane id=":cluster_13875345940_13875345941_13880325192_5153644277_#2more_3_0" index="0" disallow="tram rail_urban rail rail_electric rail_fast ship container cable_car subway aircraft wheelchair scooter drone" speed="3.65" length="1.44" shape="521.66,339.96 521.48,338.53"/>
    </edge>
    <edge id=":cluster_13875345940_13875345941_13880325192_5153644277_#2more_17" function="internal">
        <lane id=":cluster_13875345940_13875345941_13880325192_5153644277_#2more_17_0" index="0" disallow="tram rail_urban rail rail_electric rail_fast ship container cable_car subway aircraft wheelchair scooter drone" speed="11.07" length="25.39" shape="517.72,334.75 515.75,332.16 513.04,325.28 514.41,319.13 520.72,313.53"/>
    </edge>
    <edge id=":cluster_13875345940_13875345941_13880325192_5153644277_#2more_18" function="internal">
        <lane id=":cluster_13875345940_13875345941_13880325192_5153644277_#2more_18_0" index="0" disallow="tram rail_urban rail rail_electric rail_fast ship container cable_car subway aircraft wheelchair scooter drone" speed="3.65" length="3.23" shape="521.48,338.53 521.82,337.70 522.69,337.48 524.08,337.86"/>
    </edge>
    <edge id=":cluster_13875345940_13875345941_13880325192_5153644277_#2more_4" function="internal">
        <lane id=":cluster_13875345940_13875345941_13880325192_5153644277_#2more_4_0" index="0" disallow="tram rail_urban rail rail_electric rail_fast ship container cable_car subway aircraft wheelchair scooter drone" speed="9.34" length="22.39" shape="521.81,316.60 519.15,319.56 519.04,323.74 521.49,329.14 526.49,335.76"/>
    </edge>
    <edge id=":cluster_13875345940_13875345941_13880325192_5153644277_#2more_5" function="internal">
        <lane id=":cluster_13875345940_13875345941_13880325192_5153644277_#2more_5_0" index="0" disallow="tram rail_urban rail rail_electric rail_fast ship container cable_car subway aircraft wheelchair scooter drone" speed="22.22" length="34.86" shape="521.81,316.60 493.13,336.40"/>
    </edge>
    <edge id=":cluster_13875345940_13875345941_13880325192_5153644277_#2more_6" function="internal">
        <lane id=":cluster_13875345940_13875345941_13880325192_5153644277_#2more_6_0" index="0" disallow="tram rail_urban rail rail_electric rail_fast ship container cable_car subway aircraft wheelchair scooter drone" speed="10.80" length="4.61" shape="521.81,316.60 517.68,318.64"/>
    </edge>
    <edge id=":cluster_13875345940_13875345941_13880325192_5153644277_#2more_7" function="internal">
        <lane id=":cluster_13875345940_13875345941_13880325192_5153644277_#2more_7_0" index="0" disallow="tram rail_urban rail rail_electric rail_fast ship container cable_car subway aircraft wheelchair scooter drone" speed="3.67" length="1.26" shape="521.81,316.60 520.59,316.29"/>
    </edge>
    <edge id=":cluster_13875345940_13875345941_13880325192_5153644277_#2more_19" function="internal">
        <lane id=":cluster_13875345940_13875345941_13880325192_5153644277_#2more_19_0" index="0" disallow="tram rail_urban rail rail_electric rail_fast ship container cable_car subway aircraft wheelchair scooter drone" speed="10.80" length="17.84" shape="517.68,318.64 515.16,319.89 509.49,321.25 504.80,320.68 501.10,318.17"/>
    </edge>
    <edge id=":cluster_13875345940_13875345941_13880325192_5153644277_#2more_20" function="internal">
        <lane id=":cluster_13875345940_13875345941_13880325192_5153644277_#2more_20_0" index="0" disallow="tram rail_urban rail rail_electric rail_fast ship container cable_car subway aircraft wheelchair scooter drone" speed="3.67" length="3.50" shape="520.59,316.29 520.39,316.24 519.73,315.61 519.84,314.70 520.72,313.53"/>
    </edge>